Version 4
SHEET 1 900 728
WIRE -128 -400 -352 -400
WIRE 208 -400 160 -400
WIRE 352 -400 288 -400
WIRE 608 -384 608 -432
WIRE -352 -288 -352 -400
WIRE -352 -288 -400 -288
WIRE -128 -288 -352 -288
WIRE 352 -288 352 -400
WIRE 352 -288 160 -288
WIRE 368 -288 352 -288
WIRE 512 -288 432 -288
WIRE 608 -288 608 -320
WIRE 608 -288 512 -288
WIRE 512 -272 512 -288
WIRE -416 -176 -480 -176
WIRE -352 -176 -352 -288
WIRE -320 -176 -352 -176
WIRE -128 -176 -320 -176
WIRE 512 -176 512 -192
WIRE 512 -176 160 -176
WIRE 624 -176 512 -176
WIRE -320 -64 -320 -176
WIRE -128 -64 -320 -64
WIRE 304 -64 160 -64
WIRE 432 -64 384 -64
WIRE 576 -64 496 -64
WIRE 592 -64 576 -64
WIRE 816 -64 816 -160
WIRE 496 -16 496 -32
WIRE 576 -16 576 -64
WIRE -320 48 -320 -64
WIRE -128 48 -320 48
WIRE 240 48 160 48
WIRE 368 48 240 48
WIRE 576 48 432 48
WIRE 816 112 816 16
WIRE 576 128 576 48
WIRE -304 160 -368 160
WIRE -240 160 -304 160
WIRE -128 160 -176 160
WIRE 256 272 160 272
WIRE 576 272 576 208
WIRE 576 272 256 272
WIRE 256 288 256 272
WIRE -304 384 -304 160
WIRE -128 384 -304 384
WIRE 256 384 256 368
WIRE 256 384 160 384
WIRE 640 384 256 384
WIRE 784 384 704 384
WIRE -128 496 -288 496
WIRE 288 496 160 496
WIRE 416 496 368 496
WIRE 608 496 480 496
WIRE -288 640 -288 496
WIRE 16 640 16 544
WIRE 16 640 -288 640
WIRE 16 688 16 640
FLAG 16 688 0
FLAG 816 -160 +5V
FLAG 816 112 0
FLAG -400 -288 +5V
FLAG 240 -32 0
FLAG 608 496 0
FLAG 592 -64 0
FLAG 704 -176 0
FLAG 784 384 0
FLAG -368 160 0
FLAG -480 -176 0
FLAG 608 -432 0
SYMBOL PowerProducts\\ADP5070 16 48 R0
SYMATTR InstName U1
SYMBOL voltage 816 -80 R0
WINDOW 123 0 0 Left 0
WINDOW 39 0 0 Left 0
SYMATTR InstName V1
SYMATTR Value 5
SYMBOL ind 224 -48 R0
SYMATTR InstName L1
SYMATTR Value 15µ
SYMBOL schottky 368 -272 R270
WINDOW 0 32 32 VTop 2
WINDOW 3 0 32 VBottom 2
SYMATTR InstName D1
SYMATTR Value MBRS1100
SYMATTR Description Diode
SYMATTR Type diode
SYMBOL schottky 432 32 R90
WINDOW 0 0 32 VBottom 2
WINDOW 3 32 32 VTop 2
SYMATTR InstName D2
SYMATTR Value MBRS1100
SYMATTR Description Diode
SYMATTR Type diode
SYMBOL cap 560 -16 R0
SYMATTR InstName C1
SYMATTR Value 10µ
SYMBOL res 560 112 R0
SYMATTR InstName R1
SYMATTR Value 2.32Meg
SYMBOL cap 592 -384 R0
SYMATTR InstName C4
SYMATTR Value 10µ
SYMBOL res 496 -288 R0
SYMATTR InstName R2
SYMATTR Value 2.43Meg
SYMBOL res 400 -80 R90
WINDOW 0 0 56 VBottom 2
WINDOW 3 32 56 VTop 2
SYMATTR InstName R3
SYMATTR Value 12k
SYMBOL cap 496 -80 R90
WINDOW 0 0 32 VBottom 2
WINDOW 3 32 32 VTop 2
SYMATTR InstName C5
SYMATTR Value 47n
SYMBOL res 384 480 R90
WINDOW 0 0 56 VBottom 2
WINDOW 3 32 56 VTop 2
SYMATTR InstName R4
SYMATTR Value 15k
SYMBOL cap 480 480 R90
WINDOW 0 0 32 VBottom 2
WINDOW 3 32 32 VTop 2
SYMATTR InstName C6
SYMATTR Value 47n
SYMBOL res 720 -192 R90
WINDOW 0 0 56 VBottom 2
WINDOW 3 32 56 VTop 2
SYMATTR InstName R5
SYMATTR Value 137k
SYMBOL res 272 384 R180
WINDOW 0 36 76 Left 2
WINDOW 3 36 40 Left 2
SYMATTR InstName R6
SYMATTR Value 118k
SYMBOL cap 704 368 R90
WINDOW 0 0 32 VBottom 2
WINDOW 3 32 32 VTop 2
SYMATTR InstName C7
SYMATTR Value 1µ
SYMBOL cap -176 144 R90
WINDOW 0 0 32 VBottom 2
WINDOW 3 32 32 VTop 2
SYMATTR InstName C8
SYMATTR Value 1µ
SYMBOL ind 192 -384 R270
WINDOW 0 32 56 VTop 2
WINDOW 3 5 56 VBottom 2
SYMATTR InstName L2
SYMATTR Value 6.8µ
SYMBOL cap -352 -192 R90
WINDOW 0 0 32 VBottom 2
WINDOW 3 32 32 VTop 2
SYMATTR InstName C9
SYMATTR Value 10µ
TEXT -500 712 Left 2 !.tran 0.01
